15c_024
  PyMOL3.1          3D                             0

 43 44  0  0  0  0  0  0  0  0999 V2000
   11.3936    9.5693   -0.3237 O   0  0  0  0  0  0  0  0  0  0  0  0
   10.7762    9.7809    0.6926 C   0  0  0  0  0  0  0  0  0  0  0  0
   11.4876   10.1464    1.9684 C   0  0  0  0  0  0  0  0  0  0  0  0
   13.0056   10.2024    1.7931 C   0  0  0  0  0  0  0  0  0  0  0  0
   13.6713   11.2094    2.7321 C   0  0  0  0  0  0  0  0  0  0  0  0
   13.1686   12.6366    2.5192 C   0  0  0  0  0  0  0  0  0  0  0  0
   13.9856   13.3601    1.5087 C   0  0  0  0  0  0  0  0  0  0  0  0
   15.3296   13.0339    1.3598 C   0  0  0  0  0  0  0  0  0  0  0  0
   16.0915   13.7116    0.4144 C   0  0  0  0  0  0  0  0  0  0  0  0
   15.5076   14.7020   -0.3687 C   0  0  0  0  0  0  0  0  0  0  0  0
   16.2469   15.3608   -1.2871 O   0  0  0  0  0  0  0  0  0  0  0  0
   14.1633   15.0214   -0.2133 C   0  0  0  0  0  0  0  0  0  0  0  0
   13.3934   14.3493    0.7302 C   0  0  0  0  0  0  0  0  0  0  0  0
    9.3110    9.6880    0.7060 C   0  0  0  0  0  0  0  0  0  0  0  0
    8.6209    9.9239    1.8317 C   0  0  0  0  0  0  0  0  0  0  0  0
    7.1753    9.8202    1.7968 C   0  0  0  0  0  0  0  0  0  0  0  0
    6.5021   10.1075    0.6143 C   0  0  0  0  0  0  0  0  0  0  0  0
    5.1155   10.0054    0.5905 C   0  0  0  0  0  0  0  0  0  0  0  0
    4.4462   10.2810   -0.5499 O   0  0  0  0  0  0  0  0  0  0  0  0
    4.4178    9.6228    1.7317 C   0  0  0  0  0  0  0  0  0  0  0  0
    3.0720    9.5293    1.6889 O   0  0  0  0  0  0  0  0  0  0  0  0
    5.1039    9.3382    2.9079 C   0  0  0  0  0  0  0  0  0  0  0  0
    6.4911    9.4361    2.9456 C   0  0  0  0  0  0  0  0  0  0  0  0
   11.1835   11.1432    2.2895 H   0  0  0  0  0  0  0  0  0  0  0  0
   11.2164    9.4456    2.7581 H   0  0  0  0  0  0  0  0  0  0  0  0
   13.4456    9.2144    1.9143 H   0  0  0  0  0  0  0  0  0  0  0  0
   13.2647   10.4154    0.7552 H   0  0  0  0  0  0  0  0  0  0  0  0
   13.5478   10.9061    3.7726 H   0  0  0  0  0  0  0  0  0  0  0  0
   14.7570   11.1642    2.6355 H   0  0  0  0  0  0  0  0  0  0  0  0
   12.1242   12.6343    2.2083 H   0  0  0  0  0  0  0  0  0  0  0  0
   13.1782   13.1928    3.4565 H   0  0  0  0  0  0  0  0  0  0  0  0
   15.7429   12.3206    1.9258 H   0  0  0  0  0  0  0  0  0  0  0  0
   17.0590   13.4870    0.2974 H   0  0  0  0  0  0  0  0  0  0  0  0
   16.3025   15.0158   -2.1858 H   0  0  0  0  0  0  0  0  0  0  0  0
   13.7500   15.7343   -0.7799 H   0  0  0  0  0  0  0  0  0  0  0  0
   12.4261   14.5744    0.8474 H   0  0  0  0  0  0  0  0  0  0  0  0
    8.7146    9.4341   -0.1598 H   0  0  0  0  0  0  0  0  0  0  0  0
    9.0591   10.1929    2.7819 H   0  0  0  0  0  0  0  0  0  0  0  0
    7.0062   10.3826   -0.2043 H   0  0  0  0  0  0  0  0  0  0  0  0
    3.4844   10.2089   -0.5619 H   0  0  0  0  0  0  0  0  0  0  0  0
    2.6110    9.7302    0.8652 H   0  0  0  0  0  0  0  0  0  0  0  0
    4.5997    9.0630    3.7265 H   0  0  0  0  0  0  0  0  0  0  0  0
    6.9902    9.2330    3.7880 H   0  0  0  0  0  0  0  0  0  0  0  0
  1  2  2  0  0  0  0
  2  3  1  0  0  0  0
  2 14  1  0  0  0  0
  3  4  1  0  0  0  0
  3 24  1  0  0  0  0
  3 25  1  0  0  0  0
  4  5  1  0  0  0  0
  4 26  1  0  0  0  0
  4 27  1  0  0  0  0
  5  6  1  0  0  0  0
  5 28  1  0  0  0  0
  5 29  1  0  0  0  0
  6  7  1  0  0  0  0
  6 30  1  0  0  0  0
  6 31  1  0  0  0  0
  7  8  2  0  0  0  0
  7 13  1  0  0  0  0
  8  9  1  0  0  0  0
  8 32  1  0  0  0  0
  9 10  2  0  0  0  0
  9 33  1  0  0  0  0
 10 11  1  0  0  0  0
 10 12  1  0  0  0  0
 11 34  1  0  0  0  0
 12 13  2  0  0  0  0
 12 35  1  0  0  0  0
 13 36  1  0  0  0  0
 14 15  2  0  0  0  0
 14 37  1  0  0  0  0
 15 16  1  0  0  0  0
 15 38  1  0  0  0  0
 16 17  2  0  0  0  0
 16 23  1  0  0  0  0
 17 18  1  0  0  0  0
 17 39  1  0  0  0  0
 18 19  1  0  0  0  0
 18 20  2  0  0  0  0
 19 40  1  0  0  0  0
 20 21  1  0  0  0  0
 20 22  1  0  0  0  0
 21 41  1  0  0  0  0
 22 23  2  0  0  0  0
 22 42  1  0  0  0  0
 23 43  1  0  0  0  0
M  END
>  <SYBYL.NAME>
15c

>  <LEADIT.VERSION>
2.3.2   (25.08.17)

>  <BIOSOLVEIT.DOCKING_EXTREG>
15c_024

>  <BIOSOLVEIT.DOCKING_TARGET_NAME>
15c

>  <BIOSOLVEIT.DOCKING_POSE_NO>
20

>  <BIOSOLVEIT.DOCKING_E_TOTAL>
-15.480000

>  <BIOSOLVEIT.DOCKING_E_MATCH>
-21.990000

>  <BIOSOLVEIT.DOCKING_E_LIPO>
-7.984000

>  <BIOSOLVEIT.DOCKING_E_AMBIG>
-6.075000

>  <BIOSOLVEIT.DOCKING_E_CLASH>
3.969000

>  <BIOSOLVEIT.DOCKING_E_ROT>
11.200000

>  <BIOSOLVEIT.DOCKING_E_PPI>
0.000000

>  <BIOSOLVEIT.DOCKING_E_PLP>
0.000000

>  <BIOSOLVEIT.DOCKING_E_SAS>
0.000000

>  <BIOSOLVEIT.DOCKING_RMS>
5.296000

>  <BIOSOLVEIT.DOCKING_AVG_VOLUME>
0.252000

>  <BIOSOLVEIT.DOCKING_MAX_VOLUME>
1.312000

>  <BIOSOLVEIT.DOCKING_MATCHLIST>
  7;  14.75;  14.03;   0.57;  12.76;  14.86;   4.96; -0.64; -0.64
  5;   5.80;   9.72;   1.77;   3.66;   7.36;  -2.09; -0.70; -0.70
  5;   5.80;   9.72;   1.77;   5.73;   8.32;  -3.27; -0.47; -0.47
  5;   5.80;   9.72;   1.77;   2.63;  12.95;   1.91; -0.70; -0.70
  5;   5.80;   9.72;   1.77;   4.60;  13.87;   0.81; -0.70; -0.70
  5;   5.80;   9.72;   1.77;   4.42;  13.22;   4.88; -0.70; -0.70
  5;   5.80;   9.72;   1.77;   7.48;   5.94;   3.61; -0.70; -0.70
  4;  16.25;  15.36;  -1.29;  16.36;  16.84;  -0.58; -3.24; -3.24
  7;  14.75;  14.03;   0.57;  13.42;  17.78;   0.33; -0.70; -0.70
  2;   3.48;  10.21;  -0.56;   1.47;  10.10;  -0.55; -4.70; -4.70
  3;   2.61;   9.73;   0.87;   1.47;  10.10;  -0.55; -4.70; -4.70
  3;   3.07;   9.53;   1.69;   1.81;   8.83;   2.95; -3.98; -3.98
  5;   5.80;   9.72;   1.77;   8.47;  14.13;   1.74; -0.70; -0.70


>  <BIOSOLVEIT.POSEVIEW_INTERACTIONS>
  16.36;  16.84;  -0.58; -3.24;    4;  170;1
   1.47;  10.10;  -0.55; -4.70;   24;  681;0
   1.47;  10.10;  -0.55; -4.70;   25;  681;0
   1.81;   8.83;   2.95; -3.98;    3;  699;1


>  <BIOSOLVEIT.POSEVIEW_HYDROPHOBIC_CONTACTS>
 22;  149;GLY346
 22;  148;GLY346
 21;  187;ALA353
 20;  152;LYS347
 20;  153;LYS347
 20;  187;ALA353
 19;  187;ALA353
 19; 1185;ALA477
 19; 1106;LEU467
 18;  187;ALA353
 18; 1106;LEU467
 18; 1107;LEU467
 16;  152;LYS347
 16;  172;GLY351
 16;  171;GLY351
 16;  149;GLY346
 16;  153;LYS347
 16;  176;GLN352
 16;  178;GLN352
 16;  305;LYS368
 16;  306;LYS368
 15;  152;LYS347
 15;  153;LYS347
 14; 1105;LEU467
 14;  145;LEU345
 13;  176;GLN352
 13;  178;GLN352
 13;  306;LYS368
 12;  172;GLY351
 12;  153;LYS347
 11;  704;ILE416
 11;  703;ILE416
 11;  700;ILE416
 11;  290;VAL366
 11; 1107;LEU467
 11; 1105;LEU467
 11;  289;VAL366
 11;  145;LEU345
 10;  538;LEU397
 10;  290;VAL366
 10;  288;VAL366
 10;  539;LEU397
 10;  289;VAL366
 10;  187;ALA353
  9;  152;LYS347
  9;  172;GLY351
  9;  149;GLY346
  9;  153;LYS347
  9;  175;GLN352
  9;  306;LYS368
  8; 1107;LEU467
  8; 1105;LEU467
  8;  289;VAL366
  8;  187;ALA353
  7;  306;LYS368
  7;  171;GLY351
  7;  172;GLY351
  6;  538;LEU397
  6;  704;ILE416
  6;  703;ILE416
  6;  688;TYR415
  6;  290;VAL366
  6;  288;VAL366
  6;  289;VAL366
  6;  145;LEU345
  6;  700;ILE416
  5;  538;LEU397
  5;  290;VAL366
  5;  288;VAL366
  5; 1106;LEU467
  5;  539;LEU397
  5;  289;VAL366


$$$$
