4j_023
  PyMOL3.1          3D                             0

 43 44  0  0  0  0  0  0  0  0999 V2000
   11.2460   10.1602    3.4586 O   0  0  0  0  0  0  0  0  0  0  0  0
   10.7960   10.3018    2.3459 C   0  0  0  0  0  0  0  0  0  0  0  0
    9.3500   10.2172    2.1123 C   0  0  0  0  0  0  0  0  0  0  0  0
    8.5025    9.9808    3.1276 C   0  0  0  0  0  0  0  0  0  0  0  0
    7.0826    9.9062    2.8456 C   0  0  0  0  0  0  0  0  0  0  0  0
    6.1976    9.6615    3.8903 C   0  0  0  0  0  0  0  0  0  0  0  0
    4.8372    9.5916    3.6104 C   0  0  0  0  0  0  0  0  0  0  0  0
    3.9585    9.3551    4.6068 O   0  0  0  0  0  0  0  0  0  0  0  0
    4.3601    9.7614    2.3150 C   0  0  0  0  0  0  0  0  0  0  0  0
    3.0383    9.6930    2.0471 O   0  0  0  0  0  0  0  0  0  0  0  0
    5.2660   10.0046    1.2883 C   0  0  0  0  0  0  0  0  0  0  0  0
    4.8193   10.1717    0.0253 O   0  0  0  0  0  0  0  0  0  0  0  0
    6.6315   10.0794    1.5415 C   0  0  0  0  0  0  0  0  0  0  0  0
   11.7012   10.5687    1.1728 C   0  0  0  0  0  0  0  0  0  0  0  0
   12.9651   11.3290    1.5728 C   0  0  0  0  0  0  0  0  0  0  0  0
   12.6619   12.6920    2.1965 C   0  0  0  0  0  0  0  0  0  0  0  0
   12.5912   13.8131    1.1601 C   0  0  0  0  0  0  0  0  0  0  0  0
   13.8739   13.9581    0.4221 C   0  0  0  0  0  0  0  0  0  0  0  0
   15.0708   13.6346    1.0528 C   0  0  0  0  0  0  0  0  0  0  0  0
   16.2708   13.7705    0.3625 C   0  0  0  0  0  0  0  0  0  0  0  0
   16.2695   14.2271   -0.9517 C   0  0  0  0  0  0  0  0  0  0  0  0
   15.0701   14.5496   -1.5787 C   0  0  0  0  0  0  0  0  0  0  0  0
   13.8679   14.4153   -0.8918 C   0  0  0  0  0  0  0  0  0  0  0  0
    9.0395   10.3546    1.0873 H   0  0  0  0  0  0  0  0  0  0  0  0
    8.9638    9.8622    4.0972 H   0  0  0  0  0  0  0  0  0  0  0  0
    6.5329    9.5383    4.8243 H   0  0  0  0  0  0  0  0  0  0  0  0
    3.7214    8.4435    4.8207 H   0  0  0  0  0  0  0  0  0  0  0  0
    2.7332    9.8144    1.1389 H   0  0  0  0  0  0  0  0  0  0  0  0
    3.8704   10.1197   -0.1509 H   0  0  0  0  0  0  0  0  0  0  0  0
    7.2778   10.2547    0.7988 H   0  0  0  0  0  0  0  0  0  0  0  0
   12.0399    9.6258    0.7440 H   0  0  0  0  0  0  0  0  0  0  0  0
   11.1551   11.1086    0.3987 H   0  0  0  0  0  0  0  0  0  0  0  0
   13.6358   11.4375    0.7203 H   0  0  0  0  0  0  0  0  0  0  0  0
   13.5814   10.7287    2.2418 H   0  0  0  0  0  0  0  0  0  0  0  0
   13.3896   12.9308    2.9731 H   0  0  0  0  0  0  0  0  0  0  0  0
   11.7445   12.6518    2.7839 H   0  0  0  0  0  0  0  0  0  0  0  0
   12.3359   14.7610    1.6344 H   0  0  0  0  0  0  0  0  0  0  0  0
   11.7831   13.6327    0.4512 H   0  0  0  0  0  0  0  0  0  0  0  0
   15.0686   13.3062    1.9974 H   0  0  0  0  0  0  0  0  0  0  0  0
   17.1344   13.5400    0.8108 H   0  0  0  0  0  0  0  0  0  0  0  0
   17.1328   14.3237   -1.4469 H   0  0  0  0  0  0  0  0  0  0  0  0
   15.0723   14.8780   -2.5233 H   0  0  0  0  0  0  0  0  0  0  0  0
   13.0043   14.6461   -1.3400 H   0  0  0  0  0  0  0  0  0  0  0  0
  1  2  2  0  0  0  0
  2  3  1  0  0  0  0
  2 14  1  0  0  0  0
  3  4  2  0  0  0  0
  3 24  1  0  0  0  0
  4  5  1  0  0  0  0
  4 25  1  0  0  0  0
  5  6  2  0  0  0  0
  5 13  1  0  0  0  0
  6  7  1  0  0  0  0
  6 26  1  0  0  0  0
  7  8  1  0  0  0  0
  7  9  2  0  0  0  0
  8 27  1  0  0  0  0
  9 10  1  0  0  0  0
  9 11  1  0  0  0  0
 10 28  1  0  0  0  0
 11 12  1  0  0  0  0
 11 13  2  0  0  0  0
 12 29  1  0  0  0  0
 13 30  1  0  0  0  0
 14 15  1  0  0  0  0
 14 31  1  0  0  0  0
 14 32  1  0  0  0  0
 15 16  1  0  0  0  0
 15 33  1  0  0  0  0
 15 34  1  0  0  0  0
 16 17  1  0  0  0  0
 16 35  1  0  0  0  0
 16 36  1  0  0  0  0
 17 18  1  0  0  0  0
 17 37  1  0  0  0  0
 17 38  1  0  0  0  0
 18 19  2  0  0  0  0
 18 23  1  0  0  0  0
 19 20  1  0  0  0  0
 19 39  1  0  0  0  0
 20 21  2  0  0  0  0
 20 40  1  0  0  0  0
 21 22  1  0  0  0  0
 21 41  1  0  0  0  0
 22 23  2  0  0  0  0
 22 42  1  0  0  0  0
 23 43  1  0  0  0  0
M  END
>  <SYBYL.NAME>
4j

>  <LEADIT.VERSION>
2.3.2   (25.08.17)

>  <BIOSOLVEIT.DOCKING_EXTREG>
4j_023

>  <BIOSOLVEIT.DOCKING_TARGET_NAME>
4j

>  <BIOSOLVEIT.DOCKING_POSE_NO>
19

>  <BIOSOLVEIT.DOCKING_E_TOTAL>
-18.131000

>  <BIOSOLVEIT.DOCKING_E_MATCH>
-19.759000

>  <BIOSOLVEIT.DOCKING_E_LIPO>
-9.362000

>  <BIOSOLVEIT.DOCKING_E_AMBIG>
-7.579000

>  <BIOSOLVEIT.DOCKING_E_CLASH>
1.969000

>  <BIOSOLVEIT.DOCKING_E_ROT>
11.200000

>  <BIOSOLVEIT.DOCKING_E_PPI>
0.000000

>  <BIOSOLVEIT.DOCKING_E_PLP>
0.000000

>  <BIOSOLVEIT.DOCKING_E_SAS>
0.000000

>  <BIOSOLVEIT.DOCKING_RMS>
0.677000

>  <BIOSOLVEIT.DOCKING_AVG_VOLUME>
0.116000

>  <BIOSOLVEIT.DOCKING_MAX_VOLUME>
1.288000

>  <BIOSOLVEIT.DOCKING_MATCHLIST>
  5;   5.72;   9.83;   2.58;   2.63;  12.95;   1.91; -0.70; -0.70
  5;   5.72;   9.83;   2.58;   4.60;  13.87;   0.81; -0.70; -0.70
  5;   5.72;   9.83;   2.58;   8.47;  14.13;   1.74; -0.58; -0.58
  5;   5.72;   9.83;   2.58;   4.42;  13.22;   4.88; -0.70; -0.70
  5;   5.72;   9.83;   2.58;   7.48;   5.94;   3.61; -0.70; -0.70
  4;   3.87;  10.12;  -0.15;   3.35;  11.36;  -2.34; -0.01; -0.01
  9;  15.07;  14.09;  -0.26;  13.42;  17.78;   0.33; -0.70; -0.70
  3;   3.72;   8.44;   4.82;   2.50;   7.23;   5.43; -4.70; -4.70
  4;   3.87;  10.12;  -0.15;   1.47;  10.10;  -0.55; -4.70; -4.70
  2;   2.73;   9.81;   1.14;   1.47;  10.10;  -0.55; -4.70; -4.70
  2;   3.04;   9.69;   2.05;   1.81;   8.83;   2.95; -4.19; -4.19


>  <BIOSOLVEIT.POSEVIEW_INTERACTIONS>
   3.35;  11.36;  -2.34; -0.01;   26;  676;0
   2.50;   7.23;   5.43; -4.70;   25;  702;0
   1.47;  10.10;  -0.55; -4.70;   26;  681;0
   1.47;  10.10;  -0.55; -4.70;   24;  681;0
   1.81;   8.83;   2.95; -4.19;    2;  699;1


>  <BIOSOLVEIT.POSEVIEW_HYDROPHOBIC_CONTACTS>
 23;  148;GLY346
 23;  306;LYS368
 22;  152;LYS347
 22;  153;LYS347
 22;  175;GLN352
 22;  187;ALA353
 22;  306;LYS368
 21;  187;ALA353
 21;  306;LYS368
 20;  152;LYS347
 20;  172;GLY351
 20;  149;GLY346
 20;  153;LYS347
 20;  176;GLN352
 20;  178;GLN352
 20;  148;GLY346
 20;  184;ALA353
 20;  187;ALA353
 20;  305;LYS368
 19;  187;ALA353
 19; 1106;LEU467
 19; 1107;LEU467
 18;  143;LEU345
 18;  187;ALA353
 18; 1106;LEU467
 18; 1107;LEU467
 17;  148;GLY346
 17;  187;ALA353
 16;  171;GLY351
 16;  172;GLY351
 15;  172;GLY351
 15;  171;GLY351
 15;  306;LYS368
 14;  157;GLY348
 14;  172;GLY351
 14;  153;LYS347
 13;  172;GLY351
 13;  171;GLY351
 13;  175;GLN352
 13;  176;GLN352
 13;  305;LYS368
 12;  152;LYS347
 12;  172;GLY351
 12;  153;LYS347
 11; 1105;LEU467
 11; 1107;LEU467
 11;  290;VAL366
 11;  289;VAL366
 11;  187;ALA353
 10; 1107;LEU467
 10; 1106;LEU467
 10; 1105;LEU467
 10;  145;LEU345
 10;  143;LEU345
  9;  306;LYS368
  9;  176;GLN352
  9;  175;GLN352
  9;  153;LYS347
  9;  171;GLY351
  9;  172;GLY351
  8; 1105;LEU467
  8; 1107;LEU467
  8;  145;LEU345
  8;  187;ALA353
  8;  143;LEU345
  7;  538;LEU397
  7;  290;VAL366
  7;  288;VAL366
  7;  539;LEU397
  7;  289;VAL366
  7;  145;LEU345
  6;  145;LEU345
  6; 1106;LEU467
  6; 1107;LEU467
  6;  290;VAL366
  6;  693;TYR415
  6;  700;ILE416
  6;  703;ILE416
  5;  145;LEU345
  5;  289;VAL366
  5; 1106;LEU467
  5;  288;VAL366
  5;  693;TYR415
  5;  688;TYR415
  5;  700;ILE416
  5;  703;ILE416
  5;  704;ILE416
  5;  689;TYR415


$$$$
