4c_003
  PyMOL3.1          3D                             0

 42 43  0  0  0  0  0  0  0  0999 V2000
   11.5716   10.0900    3.4840 O   0  0  0  0  0  0  0  0  0  0  0  0
   10.9255   10.2606    2.4771 C   0  0  0  0  0  0  0  0  0  0  0  0
    9.4671   10.1050    2.4969 C   0  0  0  0  0  0  0  0  0  0  0  0
    8.7388   10.2912    1.3851 C   0  0  0  0  0  0  0  0  0  0  0  0
    7.3003   10.1255    1.4564 C   0  0  0  0  0  0  0  0  0  0  0  0
    6.5369   10.3165    0.3098 C   0  0  0  0  0  0  0  0  0  0  0  0
    5.1579   10.1556    0.3879 C   0  0  0  0  0  0  0  0  0  0  0  0
    4.4018   10.3376   -0.7164 O   0  0  0  0  0  0  0  0  0  0  0  0
    4.5565    9.8099    1.5939 C   0  0  0  0  0  0  0  0  0  0  0  0
    3.2165    9.6581    1.6498 O   0  0  0  0  0  0  0  0  0  0  0  0
    5.3321    9.6216    2.7332 C   0  0  0  0  0  0  0  0  0  0  0  0
    6.7129    9.7794    2.6690 C   0  0  0  0  0  0  0  0  0  0  0  0
   11.5954   10.6345    1.1825 C   0  0  0  0  0  0  0  0  0  0  0  0
   12.8737   11.4454    1.3976 C   0  0  0  0  0  0  0  0  0  0  0  0
   12.6177   12.9520    1.4374 C   0  0  0  0  0  0  0  0  0  0  0  0
   13.8971   13.7622    1.6526 C   0  0  0  0  0  0  0  0  0  0  0  0
   14.5422   14.1201    0.3621 C   0  0  0  0  0  0  0  0  0  0  0  0
   15.9239   14.2703    0.3020 C   0  0  0  0  0  0  0  0  0  0  0  0
   16.5276   14.6054   -0.9056 C   0  0  0  0  0  0  0  0  0  0  0  0
   15.7502   14.7879   -2.0448 C   0  0  0  0  0  0  0  0  0  0  0  0
   14.3687   14.6368   -1.9803 C   0  0  0  0  0  0  0  0  0  0  0  0
   13.7610   14.3019   -0.7746 C   0  0  0  0  0  0  0  0  0  0  0  0
    9.0467    9.8389    3.4565 H   0  0  0  0  0  0  0  0  0  0  0  0
    9.3035   10.5582    0.5036 H   0  0  0  0  0  0  0  0  0  0  0  0
    6.9720   10.5653   -0.5556 H   0  0  0  0  0  0  0  0  0  0  0  0
    3.4445   10.2244   -0.6563 H   0  0  0  0  0  0  0  0  0  0  0  0
    2.6924    9.7925    0.8496 H   0  0  0  0  0  0  0  0  0  0  0  0
    4.8971    9.3729    3.5985 H   0  0  0  0  0  0  0  0  0  0  0  0
    7.2761    9.6456    3.4845 H   0  0  0  0  0  0  0  0  0  0  0  0
   11.8971    9.7344    0.6462 H   0  0  0  0  0  0  0  0  0  0  0  0
   10.8962   11.1796    0.5469 H   0  0  0  0  0  0  0  0  0  0  0  0
   13.6162   11.1999    0.6382 H   0  0  0  0  0  0  0  0  0  0  0  0
   13.3906   11.1185    2.2995 H   0  0  0  0  0  0  0  0  0  0  0  0
   11.8756   13.1953    2.1984 H   0  0  0  0  0  0  0  0  0  0  0  0
   12.1008   13.2791    0.5375 H   0  0  0  0  0  0  0  0  0  0  0  0
   14.6038   13.2076    2.2710 H   0  0  0  0  0  0  0  0  0  0  0  0
   13.6891   14.6700    2.2189 H   0  0  0  0  0  0  0  0  0  0  0  0
   16.4801   14.1380    1.1225 H   0  0  0  0  0  0  0  0  0  0  0  0
   17.5203   14.7152   -0.9548 H   0  0  0  0  0  0  0  0  0  0  0  0
   16.1856   15.0282   -2.9124 H   0  0  0  0  0  0  0  0  0  0  0  0
   13.8124   14.7691   -2.8008 H   0  0  0  0  0  0  0  0  0  0  0  0
   12.7683   14.1925   -0.7252 H   0  0  0  0  0  0  0  0  0  0  0  0
  1  2  2  0  0  0  0
  2  3  1  0  0  0  0
  2 13  1  0  0  0  0
  3  4  2  0  0  0  0
  3 23  1  0  0  0  0
  4  5  1  0  0  0  0
  4 24  1  0  0  0  0
  5  6  2  0  0  0  0
  5 12  1  0  0  0  0
  6  7  1  0  0  0  0
  6 25  1  0  0  0  0
  7  8  1  0  0  0  0
  7  9  2  0  0  0  0
  8 26  1  0  0  0  0
  9 10  1  0  0  0  0
  9 11  1  0  0  0  0
 10 27  1  0  0  0  0
 11 12  2  0  0  0  0
 11 28  1  0  0  0  0
 12 29  1  0  0  0  0
 13 14  1  0  0  0  0
 13 30  1  0  0  0  0
 13 31  1  0  0  0  0
 14 15  1  0  0  0  0
 14 32  1  0  0  0  0
 14 33  1  0  0  0  0
 15 16  1  0  0  0  0
 15 34  1  0  0  0  0
 15 35  1  0  0  0  0
 16 17  1  0  0  0  0
 16 36  1  0  0  0  0
 16 37  1  0  0  0  0
 17 18  2  0  0  0  0
 17 22  1  0  0  0  0
 18 19  1  0  0  0  0
 18 38  1  0  0  0  0
 19 20  2  0  0  0  0
 19 39  1  0  0  0  0
 20 21  1  0  0  0  0
 20 40  1  0  0  0  0
 21 22  2  0  0  0  0
 21 41  1  0  0  0  0
 22 42  1  0  0  0  0
M  END
>  <SYBYL.NAME>
4c

>  <LEADIT.VERSION>
2.3.2   (25.08.17)

>  <BIOSOLVEIT.DOCKING_EXTREG>
4c_003

>  <BIOSOLVEIT.DOCKING_TARGET_NAME>
4c

>  <BIOSOLVEIT.DOCKING_POSE_NO>
3

>  <BIOSOLVEIT.DOCKING_E_TOTAL>
-16.942000

>  <BIOSOLVEIT.DOCKING_E_MATCH>
-18.694000

>  <BIOSOLVEIT.DOCKING_E_LIPO>
-10.066000

>  <BIOSOLVEIT.DOCKING_E_AMBIG>
-6.074000

>  <BIOSOLVEIT.DOCKING_E_CLASH>
2.693000

>  <BIOSOLVEIT.DOCKING_E_ROT>
9.800000

>  <BIOSOLVEIT.DOCKING_E_PPI>
0.000000

>  <BIOSOLVEIT.DOCKING_E_PLP>
0.000000

>  <BIOSOLVEIT.DOCKING_E_SAS>
0.000000

>  <BIOSOLVEIT.DOCKING_RMS>
1.317000

>  <BIOSOLVEIT.DOCKING_AVG_VOLUME>
0.253000

>  <BIOSOLVEIT.DOCKING_MAX_VOLUME>
1.740000

>  <BIOSOLVEIT.DOCKING_MATCHLIST>
  4;   5.94;   9.97;   1.53;   3.66;   7.36;  -2.09; -0.70; -0.70
  4;   5.94;   9.97;   1.53;   5.73;   8.32;  -3.27; -0.70; -0.70
  4;   5.94;   9.97;   1.53;   2.63;  12.95;   1.91; -0.70; -0.70
  4;   5.94;   9.97;   1.53;   4.60;  13.87;   0.81; -0.70; -0.70
  4;   5.94;   9.97;   1.53;   4.42;  13.22;   4.88; -0.70; -0.70
  4;   5.94;   9.97;   1.53;   7.48;   5.94;   3.61; -0.70; -0.70
  7;  15.15;  14.45;  -0.84;  13.42;  17.78;   0.33; -0.70; -0.70
  2;   3.44;  10.22;  -0.66;   1.47;  10.10;  -0.55; -4.70; -4.70
  3;   2.69;   9.79;   0.85;   1.47;  10.10;  -0.55; -4.70; -4.70
  3;   3.22;   9.66;   1.65;   1.81;   8.83;   2.95; -3.98; -3.98
  4;   5.94;   9.97;   1.53;   8.47;  14.13;   1.74; -0.70; -0.70


>  <BIOSOLVEIT.POSEVIEW_INTERACTIONS>
   1.47;  10.10;  -0.55; -4.70;   23;  681;0
   1.47;  10.10;  -0.55; -4.70;   24;  681;0
   1.81;   8.83;   2.95; -3.98;    3;  699;1


>  <BIOSOLVEIT.POSEVIEW_HYDROPHOBIC_CONTACTS>
 22;  148;GLY346
 22;  306;LYS368
 21;  152;LYS347
 21;  149;GLY346
 21;  175;GLN352
 21;  176;GLN352
 21;  148;GLY346
 21;  187;ALA353
 21;  305;LYS368
 21;  306;LYS368
 20;  187;ALA353
 20;  306;LYS368
 19;  152;LYS347
 19;  172;GLY351
 19;  149;GLY346
 19;  153;LYS347
 19;  175;GLN352
 19;  176;GLN352
 19;  148;GLY346
 19;  306;LYS368
 18;  187;ALA353
 18; 1106;LEU467
 18; 1107;LEU467
 17;  187;ALA353
 17; 1106;LEU467
 16;  148;GLY346
 16;  187;ALA353
 15;  172;GLY351
 15;  171;GLY351
 15;  306;LYS368
 14;  305;LYS368
 14;  171;GLY351
 14;  172;GLY351
 13;  172;GLY351
 13;  171;GLY351
 12;  305;LYS368
 12;  176;GLN352
 12;  175;GLN352
 12;  171;GLY351
 12;  172;GLY351
 11;  153;LYS347
 11;  171;GLY351
 11;  172;GLY351
 11;  157;GLY348
 10;  187;ALA353
 10;  143;LEU345
 10;  145;LEU345
 10;  289;VAL366
 10; 1105;LEU467
 10; 1107;LEU467
  9;  704;ILE416
  9;  145;LEU345
  9;  289;VAL366
  9; 1105;LEU467
  9; 1107;LEU467
  9;  290;VAL366
  9;  703;ILE416
  8;  187;ALA353
  8;  289;VAL366
  8;  539;LEU397
  8; 1106;LEU467
  8;  288;VAL366
  8;  290;VAL366
  8;  538;LEU397
  7;  306;LYS368
  7;  175;GLN352
  7;  153;LYS347
  7;  171;GLY351
  7;  172;GLY351
  6; 1107;LEU467
  6;  187;ALA353
  6;  289;VAL366
  5;  145;LEU345
  5;  289;VAL366
  5;  288;VAL366
  5;  290;VAL366
  5;  688;TYR415
  5;  703;ILE416
  5;  704;ILE416
  5;  538;LEU397
  4;  289;VAL366
  4;  539;LEU397
  4; 1106;LEU467
  4;  288;VAL366
  4;  290;VAL366
  4;  538;LEU397


$$$$
